Circuit: * C:\Users\Vlad\Desktop\Poli\ELTH\Lab2\Ex1\ex1.cir

.dc: Increment so large that there's only one step.

Date: Mon Mar 13 13:29:30 2023
Total elapsed time: 0.022 seconds.

tnom = 27
temp = 27
method = trap
totiter = 3
traniter = 0
tranpoints = 0
accept = 0
rejected = 0
matrix size = 8
fillins = 5
solver = Normal
Matrix Compiler1: 542 bytes object code size
Matrix Compiler2: 650 bytes object code size
