Circuit: * C:\Users\Vlad\Desktop\Poli\ELTH\Lab3\Ex2\ex2.asc

Direct Newton iteration for .op point succeeded.

Date: Mon Mar 27 12:48:40 2023
Total elapsed time: 0.026 seconds.

tnom = 27
temp = 27
method = trap
totiter = 3
traniter = 0
tranpoints = 0
accept = 0
rejected = 0
matrix size = 9
fillins = 3
solver = Normal
Matrix Compiler1: 372 bytes object code size
Matrix Compiler2: 667 bytes object code size
