Circuit: * \\wsl.localhost\Ubuntu\home\vconstantinescu\Desktop\UPB\ELTH\Lab3\Ex2\ex2.asc

.dc: Increment so large that there's only one step.

Date: Mon May 22 10:53:24 2023
Total elapsed time: 0.046 seconds.

tnom = 27
temp = 27
method = trap
totiter = 3
traniter = 0
tranpoints = 0
accept = 0
rejected = 0
matrix size = 9
fillins = 3
solver = Normal
Matrix Compiler1: 372 bytes object code size
Matrix Compiler2: 667 bytes object code size
