Circuit: * C:\Users\Vlad\Desktop\Poli\ELTH\circuitT.cir

Direct Newton iteration for .op point succeeded.

Date: Mon Mar 13 12:33:53 2023
Total elapsed time: 0.022 seconds.

tnom = 27
temp = 27
method = trap
totiter = 3
traniter = 0
tranpoints = 0
accept = 0
rejected = 0
matrix size = 4
fillins = 0
solver = Normal
Matrix Compiler1: 136 bytes object code size
Matrix Compiler2: 276 bytes object code size
