Circuit: * C:\Users\Vlad\Documents\LTspiceXVII\Draft1.asc

.dc: Increment so large that there's only one step.

Date: Mon Mar 13 12:28:28 2023
Total elapsed time: 0.051 seconds.

tnom = 27
temp = 27
method = trap
totiter = 3
traniter = 0
tranpoints = 0
accept = 0
rejected = 0
matrix size = 4
fillins = 0
solver = Normal
Matrix Compiler1: 118 bytes object code size
Matrix Compiler2: 282 bytes object code size
