Circuit: * C:\Users\Vlad\Desktop\Poli\ELTH\Lab4\Ex3\ex3.asc


Date: Mon Apr 10 13:18:18 2023
Total elapsed time: 0.041 seconds.

tnom = 27
temp = 27
method = trap
totiter = 0
traniter = 0
tranpoints = 0
accept = 0
rejected = 0
matrix size = 7
fillins = 8
solver = Normal

