Circuit: * C:\Users\Vlad\Desktop\Poli\Draft1.asc

.dc: Increment so large that there's only one step.

Date: Mon May 22 12:42:48 2023
Total elapsed time: 0.090 seconds.

tnom = 27
temp = 27
method = trap
totiter = 3
traniter = 0
tranpoints = 0
accept = 0
rejected = 0
matrix size = 9
fillins = 6
solver = Normal
Matrix Compiler1: 648 bytes object code size
Matrix Compiler2: 783 bytes object code size
