Circuit: * C:\Users\Vlad\Desktop\Poli\ELTH\Draft3.asc

.dc: Increment so large that there's only one step.

Date: Mon Mar 13 13:33:15 2023
Total elapsed time: 0.047 seconds.

tnom = 27
temp = 27
method = trap
totiter = 3
traniter = 0
tranpoints = 0
accept = 0
rejected = 0
matrix size = 8
fillins = 5
solver = Normal
Matrix Compiler1: 542 bytes object code size
Matrix Compiler2: 650 bytes object code size
