Circuit: * C:\Users\Vlad\Desktop\Poli\ELTH\cc1.cir

.dc: Increment so large that there's only one step.

Date: Mon Mar 13 12:52:02 2023
Total elapsed time: 0.019 seconds.

tnom = 27
temp = 27
method = trap
totiter = 3
traniter = 0
tranpoints = 0
accept = 0
rejected = 0
matrix size = 9
fillins = 1
solver = Normal
Matrix Compiler1: 296 bytes object code size
Matrix Compiler2: 599 bytes object code size
