Circuit: * C:\Users\Vlad\Desktop\Poli\Draft2.asc


Date: Mon May 22 12:48:54 2023
Total elapsed time: 0.083 seconds.

tnom = 27
temp = 27
method = trap
totiter = 0
traniter = 0
tranpoints = 0
accept = 0
rejected = 0
matrix size = 7
fillins = 8
solver = Normal

