Circuit: * C:\Users\Vlad\Desktop\Poli\ELTH\Lab4\Ex1\ex1.asc


Date: Mon Apr 10 13:05:32 2023
Total elapsed time: 0.046 seconds.

tnom = 27
temp = 27
method = trap
totiter = 0
traniter = 0
tranpoints = 0
accept = 0
rejected = 0
matrix size = 6
fillins = 6
solver = Normal

