Circuit: * C:\Users\Vlad\Desktop\Poli\ELTH\Lab2\Ex2\Draft5.asc

.dc: Increment so large that there's only one step.

Date: Mon Mar 13 14:14:37 2023
Total elapsed time: 0.035 seconds.

tnom = 27
temp = 27
method = trap
totiter = 3
traniter = 0
tranpoints = 0
accept = 0
rejected = 0
matrix size = 7
fillins = 0
solver = Normal
Matrix Compiler1: 178 bytes object code size
Matrix Compiler2: 453 bytes object code size
