Circuit: * C:\Users\Vlad\Desktop\Poli\ELTH\Draft4.asc

.dc: Increment so large that there's only one step.

Date: Mon Mar 13 13:39:16 2023
Total elapsed time: 0.033 seconds.

tnom = 27
temp = 27
method = trap
totiter = 3
traniter = 0
tranpoints = 0
accept = 0
rejected = 0
matrix size = 7
fillins = 1
solver = Normal
Matrix Compiler1: 232 bytes object code size
Matrix Compiler2: 467 bytes object code size
