Circuit: * C:\Users\Vlad\Desktop\Poli\ELTH\Lab3\Ex1\Draft1.asc

Direct Newton iteration for .op point succeeded.

Date: Mon Mar 27 12:47:58 2023
Total elapsed time: 0.035 seconds.

tnom = 27
temp = 27
method = trap
totiter = 3
traniter = 0
tranpoints = 0
accept = 0
rejected = 0
matrix size = 8
fillins = 4
solver = Normal
Matrix Compiler1: 448 bytes object code size
Matrix Compiler2: 622 bytes object code size
