Circuit: * C:\Users\Vlad\Desktop\Poli\ELTH\Lab5\Ex.asc

Direct Newton iteration for .op point succeeded.

Date: Mon May 08 13:40:14 2023
Total elapsed time: 0.041 seconds.

tnom = 27
temp = 27
method = modified trap
totiter = 2085
traniter = 2082
tranpoints = 1042
accept = 1042
rejected = 0
matrix size = 4
fillins = 0
solver = Normal
Matrix Compiler1: 190 bytes object code size  0.1/0.0/[0.0]
Matrix Compiler2:      23 opcodes  0.1/[0.0]/0.1

